# File generated by Flopy version 3.3.2 on 02/03/2021 at 15:43:39.
BEGIN options
  COMPLEXITY  simple
END options

