# File generated by Flopy version 3.3.2 on 01/25/2021 at 18:00:26.
BEGIN options
  COMPLEXITY  simple
END options

