# File generated by Flopy version 3.3.2 on 01/25/2021 at 12:58:14.
BEGIN options
  COMPLEXITY  simple
END options

